ca_results/summer/N-1/fnsl/N1_lines_with_realweather_T.csv
Contingency,Converged,FromBus#,ToBus#,CKT,Pij(MW),Qij(MVAr),Sij(MVA),Pji(MW),Qji(MVAr),Sji(MVA),RateA,Ploss(MW),Qloss(MVAr),Loading_%,Violation,Current(A),Tcond(degC),lat_mid,lon_mid,bearing_deg,length_km,weather_site_id,weather_site_distance_km,weather_site_elevation_m,air_temperature,ghi,surface_pressure,surface_pressure_pa,wind_direction,wind_speed,wind_conductor_angle_deg,Tcond_realweather(degC),Ampacity_at_75C(A),Loading_realweather_%
LT_101-102_A1,True,101.0,103.0,A2,70.836464,-0.624489,70.839218,-67.862502,12.03369,68.921178,175.0,2.973962,11.409201,40.48,False,307.52937304137447,51.26172065734863,33.4664680426,-114.25302055200001,281.65513948457516,78.99713734402492,272693,27.889914770408065,91.0,43.29999923706055,830.0,1002.0,100200.0,122.0,3.200000047683716,20.34486051542484,53.19131149128225,892.3115504992188,34.464349684739815
LT_101-102_A1,True,101.0,105.0,A3,100.874557,-11.179005,101.492096,-98.43993,20.585521,100.569297,175.0,2.434628,9.406516,58.0,False,440.6005816091164,55.67008018493652,33.527831551000006,-113.917332536,332.7077807708397,32.97810897483768,272693,55.37740896846629,91.0,43.29999923706055,830.0,1002.0,100200.0,122.0,3.200000047683716,149.2922192291603,54.807732243098144,963.4977724943705,45.72927869552399
LT_101-102_A1,True,102.0,104.0,A4,64.102921,5.699685,64.355812,-62.626678,-0.018389,62.626681,175.0,1.476242,5.681296,36.77,False,279.13114493587227,50.51701545715332,33.58499098295,-113.82567627200001,0.053868993317280456,50.552094829892674,273508,61.87228040205209,89.0,43.20000076293945,832.0,999.0,99900.0,122.0,3.0,121.94613100668272,50.50305173086963,1041.5330631958345,26.80002726743861
LT_101-102_A1,True,102.0,106.0,A5,60.407902,-8.937335,61.06546,-58.424068,16.555258,60.724363,175.0,1.983834,7.617923,34.89,False,264.85986636041065,50.169267654418945,33.54785744425,-114.003928834,322.14286051780334,53.63905217588826,272693,47.56965144659038,91.0,43.29999923706055,830.0,1002.0,100200.0,122.0,3.200000047683716,159.85713948219666,52.44696944751922,890.7119722186746,29.73574787601329
LT_101-102_A1,True,103.0,109.0,A6,-24.746803,-6.001456,25.464127,24.973119,6.870216,25.900899,175.0,0.226316,0.86876,14.55,False,114.34844103953512,47.59888648986816,33.72863454765,-114.48934004450001,38.03489934721705,54.229833774295344,273508,0.9566740748851706,89.0,43.20000076293945,832.0,999.0,99900.0,122.0,3.0,83.96510065278295,48.57187498018175,1078.7158164828188,10.600423141321057
LT_101-102_A1,True,103.0,124.0,A7,-61.205627,-32.528988,69.31279,61.316325,37.178298,71.707166,400.0,0.110698,4.64931,17.33,False,311.25392520233197,51.364240646362305,33.53989894155,-114.6634437025,62.122581397062504,1.4584863725043906,270245,1.1363138040058882,75.0,43.5,835.0,1001.0,100100.0,122.0,3.200000047683716,59.877418602937496,50.99332904815674,1059.3326668731872,29.38207561568496
LT_101-102_A1,True,104.0,109.0,A8,-0.608357,-9.726361,9.745368,0.630696,9.812409,9.832657,175.0,0.022339,0.086048,5.57,False,43.52905873391757,47.09284782409668,33.8663698982,-114.066850007,285.22792751338363,46.175372092212655,277498,39.42199663193729,151.0,42.29999923706055,833.0,989.0,98900.0,107.0,2.5999999046325684,1.7720724866163664,53.07663940573548,681.7502693611173,6.384897914995998
LT_101-102_A1,True,105.0,110.0,A9,37.768482,-30.434265,48.504669,-37.190391,32.646091,49.486286,175.0,0.578091,2.211826,27.72,False,212.7183195486174,49.05056953430176,33.786176454599996,-114.14599382399999,316.1102545640957,39.125724159032,273508,31.981051974502726,89.0,43.20000076293945,832.0,999.0,99900.0,122.0,3.0,165.88974543590427,52.68745876626781,823.750016524775,25.823164222324444
LT_101-102_A1,True,106.0,110.0,10,-57.791664,-126.761391,139.313766,58.338772,129.145216,141.710618,175.0,0.547108,2.383826,79.61,False,610.7673585816057,63.41731071472168,33.82541475805,-114.23744436449999,332.2035219612036,21.973081610449327,273508,25.547898565618038,89.0,43.20000076293945,832.0,999.0,99900.0,122.0,3.0,149.7964780387964,60.272534116702445,942.7859993722285,64.78324444659725
LT_101-102_A1,True,107.0,108.0,11,89.924423,21.035666,92.352051,-88.451278,-15.419302,89.785208,175.0,1.473145,5.616364,52.77,False,400.64715658834615,54.1896915435791,34.57823637615,-113.7314761945,191.80450991680215,27.040331428742554,280694,48.23352083597048,170.0,42.0,826.0,991.0,99100.0,137.0,2.5,125.19549008319785,52.328033447265625,1000.8290183522827,40.03152878680042
LT_101-102_A1,True,107.0,203.0,B1,158.259613,-1.244797,158.264511,-146.94835,44.604641,153.56885,175.0,11.311263,43.359844,90.44,False,686.5925080645477,67.58454322814941,35.0258321095,-113.838621218,341.18656177700467,77.23111035384919,273483,67.12170109617558,151.0,42.5,838.0,987.0,98700.0,137.0,3.0999999046325684,155.81343822299533,63.55245113372803,921.2724485667935,74.526543058209
LT_101-102_A1,True,108.0,109.0,1,-27.82576,0.863594,27.839161,28.20879,0.606174,28.215303,175.0,0.38303,1.469768,15.91,False,124.28019304370436,47.70632743835449,34.18982353435,-114.034962272,220.15903880363092,78.21129921512714,280694,14.468759995973627,170.0,42.0,826.0,991.0,99100.0,137.0,2.5,96.84096119636908,47.953704833984375,1040.9841760538727,11.9387206743931
LT_101-102_A1,True,108.0,110.0,2,-29.847162,-13.815769,32.889645,30.351953,15.752755,34.19635,175.0,0.50479,1.936986,18.79,False,146.82667447265766,47.98190116882324,34.1860019329,-114.0273040675,218.96149073017423,77.97500234740549,280694,15.230903469254052,170.0,42.0,826.0,991.0,99100.0,137.0,2.5,98.03850926982577,48.131439208984375,1038.9794720378793,14.131816693612654
LT_101-102_A1,True,109.0,111.0,14,-78.828011,-13.241832,79.932472,78.970719,19.235581,81.279653,400.0,0.142708,5.993749,19.98,False,353.40273816646027,52.611703872680664,33.91241117325,-114.304699342,159.67425780531744,1.9031858797390406,273502,18.441799885429408,97.0,42.79999923706055,833.0,991.0,99100.0,107.0,2.700000047683716,127.32574219468256,51.920090518200595,1003.6141417602157,35.21300901027912
LT_101-102_A1,True,109.0,112.0,15,-124.526909,-25.515812,127.114151,124.887812,40.673739,131.344275,400.0,0.360903,15.157928,31.78,False,562.0055016327393,60.96503257751465,33.9156511436,-114.31084169450001,203.947168667828,1.1643839227143522,273502,17.80785802409589,97.0,42.79999923706055,833.0,991.0,99100.0,107.0,2.700000047683716,83.05283133217199,55.94720540119306,1048.6219145928005,53.594674478167526
LT_101-102_A1,True,110.0,111.0,16,-85.54586,17.666834,87.351082,85.707103,-10.894631,86.396762,400.0,0.161243,6.772202,21.84,False,375.65188120551295,53.330984115600586,33.9085895718,-114.2970411375,218.83185834528146,1.199999298332487,273502,19.225322946508676,97.0,42.79999923706055,833.0,991.0,99100.0,107.0,2.700000047683716,68.16814165471854,51.968305240057816,1028.404391386048,36.52764266197097
LT_101-102_A1,True,110.0,112.0,17,-132.587326,5.270175,132.692032,132.959404,10.357089,133.362185,400.0,0.372078,15.627263,33.17,False,570.6398856259402,61.38577461242676,33.91182954215,-114.30318349000001,263.52385649728956,1.8981503306103409,273502,18.59008452775047,97.0,42.79999923706055,833.0,991.0,99100.0,107.0,2.700000047683716,23.476143502710443,60.687265843451314,875.7842274815599,65.15758878952354
LT_101-102_A1,True,111.0,113.0,18,-256.702148,6.84471,256.793396,260.981054,27.386533,262.414048,500.0,4.278905,34.231243,51.36,False,669.9204080077207,66.63233757019043,34.1293332045,-114.287887337,2.7798809616962217,50.08528154115857,277498,4.623035951639475,151.0,42.29999923706055,833.0,989.0,98900.0,107.0,2.5999999046325684,104.22011903830378,59.28599344770919,1034.9994403027815,64.72664447158931
LT_101-102_A1,True,111.0,114.0,19,92.024345,-15.185658,93.268883,-91.560346,19.083254,93.527897,500.0,0.464,3.897596,18.65,False,243.31906165446856,49.67799186706543,33.84073608285,-114.56051449450001,253.6860893720658,49.96150226236739,271871,2.0077707949584878,269.0,42.599998474121094,839.0,987.0,98700.0,107.0,2.700000047683716,33.313910627934206,50.95433927960403,936.5041460602279,25.981632081191062
LT_101-102_A1,True,112.0,113.0,20,-179.361481,19.401604,180.407776,181.417234,-2.955578,181.441308,500.0,2.055753,16.446026,36.08,False,463.1651938641696,56.56405448913574,34.132573174849995,-114.29402968950001,4.126021058856338,49.43428786192113,277498,4.172118022807155,151.0,42.29999923706055,833.0,989.0,98900.0,107.0,2.5999999046325684,102.87397894114366,53.3507795739788,1036.7789137969953,44.67347741168074
LT_101-102_A1,True,112.0,123.0,21,-78.485725,-70.432434,105.454895,79.721867,80.424577,113.241726,500.0,1.236141,9.992143,21.09,False,270.73687160026094,50.30951499938965,34.14643314265,-114.691095425,307.21393123188295,87.0443510046333,269416,1.9810322366643094,324.0,41.70000076293945,849.0,971.0,97100.0,128.0,2.799999952316284,0.7860687681170475,56.11685194457095,688.1021386702778,39.34544835501399
LT_101-102_A1,True,113.0,123.0,22,18.663559,-88.585075,90.529793,-17.895335,94.661031,96.337707,500.0,0.768224,6.075956,18.11,False,231.65407842047608,49.42866325378418,34.3681403032,-114.6717226875,272.6456124243665,72.95310639099516,270224,1.0590202066430323,388.0,41.400001525878906,847.0,966.0,96600.0,137.0,2.799999952316284,44.354387575633496,48.976695577512146,1007.7230552493111,22.987871242378667
LT_101-102_A1,True,113.0,215.0,B2,282.629456,-49.505222,286.932373,-274.146415,113.128033,296.570748,500.0,8.483041,63.62281,57.39,False,734.2229804536864,70.41491508483887,34.7514356122,-114.425215633,342.78515118710203,92.50852375989442,273483,7.038480495579008,151.0,42.5,838.0,987.0,98700.0,137.0,3.0999999046325684,154.21484881289797,65.12763500213623,932.388400799089,78.74647301751416
LT_101-102_A1,True,114.0,116.0,23,-74.217987,-44.254295,86.41037,74.603078,48.798367,89.145386,500.0,0.385091,4.544071,17.28,False,225.2088255817416,49.29661750793457,33.71905866655,-115.07048464,254.58110202453383,48.11325865555416,262163,1.5254500733407452,387.0,42.79999923706055,848.0,984.0,98400.0,125.0,3.0999999046325684,50.418897975466166,49.65557940146391,1036.3115443735392,21.731768482602654
LT_101-102_A1,True,115.0,116.0,24,-106.102898,-26.742441,109.42112,106.34729,28.81978,110.183147,500.0,0.244393,2.077339,21.88,False,278.54106561185813,50.50225257873535,33.5836074796,-115.325283222,2.6007230139453554,17.236067799848346,256615,1.991195585655014,994.0,37.79999923706055,878.0,903.0,90300.0,123.0,3.4000000953674316,120.39927698605464,45.2832256586189,1146.9799543644317,24.284737021947713
LT_101-102_A1,True,115.0,121.0,1,-35.729836,3.373221,35.888718,35.812941,-2.694529,35.914164,500.0,0.083105,0.678692,7.18,False,91.35788187110016,47.38482475280762,33.5166525943,-115.700143213,272.1450146356158,68.75953430638423,249642,1.4759306061184725,343.0,41.900001525878906,868.0,983.0,98300.0,123.0,3.5,30.85498536438422,48.271746207246906,1005.9711186612424,9.081561108104202
LT_101-102_A1,True,115.0,121.0,2,-35.729836,3.373221,35.888718,35.812941,-2.694529,35.914164,500.0,0.083105,0.678692,7.18,False,91.35788187110016,47.38482475280762,33.5166525943,-115.700143213,272.1450146356158,68.75953430638423,249642,1.4759306061184725,343.0,41.900001525878906,868.0,983.0,98300.0,123.0,3.5,30.85498536438422,48.271746207246906,1005.9711186612424,9.081561108104202
LT_101-102_A1,True,115.0,124.0,26,61.67733,29.497475,68.36808,-61.316323,-26.815706,66.923639,500.0,0.361007,2.681769,13.67,False,174.03694878133916,48.37639808654785,33.524574389449995,-114.9929983545,86.0634407392426,62.52120431249092,263770,1.2987773397332119,181.0,43.099998474121094,843.0,985.0,98500.0,125.0,3.200000047683716,38.936559260757406,49.717556239294936,1002.0924633922735,17.367354324988234
LT_101-102_A1,True,116.0,117.0,27,-7.616001,18.482555,19.990206,7.631438,-18.348761,19.872491,500.0,0.015438,0.133794,4.0,False,50.54749871011375,47.12237358093262,33.6181318947,-115.48093336950001,252.22842579087137,31.107139968025567,253477,1.9140400448987045,626.0,40.29999923706055,872.0,951.0,95100.0,123.0,3.5,50.77157420912863,45.84639722934662,1109.7604975947208,4.554811494882876
LT_101-102_A1,True,116.0,119.0,28,-103.787148,-59.303844,119.535423,104.213574,62.573115,121.556011,500.0,0.426427,3.269271,23.91,False,302.2588481532107,51.11819267272949,33.76505507735,-115.3450942825,349.13986505303745,23.556813083232125,256610,0.7090697519730219,173.0,42.900001525878906,810.0,993.0,99300.0,135.0,3.299999952316284,145.86013494696255,51.05186208440864,998.9323056165108,30.258191316243966
LT_101-102_A1,True,117.0,118.0,29,4.250567,39.750309,39.976921,-4.215355,-39.503823,39.728091,500.0,0.035212,0.246486,8.0,False,101.63047438392248,47.47422218322754,33.55988168545,-115.720382362,257.0094374622221,15.136559396239369,248877,2.067412682375808,673.0,38.400001525878906,880.0,920.0,92000.0,123.0,3.5,45.99056253777792,44.42042766044324,1117.9487585435186,9.090798984054357
LT_101-102_A1,True,117.0,122.0,30,-11.882008,-16.010227,19.937639,11.906218,16.191807,20.098076,500.0,0.024211,0.18158,3.99,False,50.68603731801642,47.12319374084473,33.19704830715,-115.9825780325,217.2849118719248,105.44450604735857,244330,1.4502294277503673,-1.0,44.20000076293945,867.0,1014.0,101400.0,108.0,3.5,70.7150881280752,49.24600408590777,1089.7721202628236,4.651067537476763
LT_101-102_A1,True,118.0,121.0,1,7.097922,-14.048314,15.73962,-7.092307,14.096984,15.780551,500.0,0.005616,0.04867,3.15,False,40.255448849654464,47.07972526550293,33.53582614645,-115.9353669965,265.66484574225194,25.175829908557873,245078,0.7639325348498951,-54.0,43.79999923706055,863.0,1013.0,101300.0,123.0,3.5,37.33515425774806,49.51733286111994,1014.8210482052408,3.9667534409981084
LT_101-102_A1,True,118.0,121.0,2,7.097922,-14.048314,15.73962,-7.092307,14.096984,15.780551,500.0,0.005616,0.04867,3.15,False,40.255448849654464,47.07972526550293,33.53582614645,-115.9353669965,265.66484574225194,25.175829908557873,245078,0.7639325348498951,-54.0,43.79999923706055,863.0,1013.0,101300.0,123.0,3.5,37.33515425774806,49.51733286111994,1014.8210482052408,3.9667534409981084
LT_101-102_A1,True,119.0,120.0,1,-129.441528,-44.640362,136.922867,130.344098,51.860916,140.282352,500.0,0.902569,7.220554,27.38,False,340.5429218678343,52.21474647521973,34.056828753299996,-115.315800239,13.212646757626715,42.89429659955225,257390,1.5908349052243251,342.0,42.0,867.0,977.0,97700.0,128.0,3.0999999046325684,114.78735324237329,50.276947021484375,1074.7579687594014,31.685545189390385
LT_101-102_A1,True,119.0,120.0,2,-129.441528,-44.640362,136.922867,130.344098,51.860916,140.282352,500.0,0.902569,7.220554,27.38,False,340.5429218678343,52.21474647521973,34.056828753299996,-115.315800239,13.212646757626715,42.89429659955225,257390,1.5908349052243251,342.0,42.0,867.0,977.0,97700.0,128.0,3.0999999046325684,114.78735324237329,50.276947021484375,1074.7579687594014,31.685545189390385
LT_101-102_A1,True,120.0,123.0,1,-185.033859,-54.314644,192.840881,186.072232,61.929381,196.107429,500.0,1.038373,7.614737,38.57,False,468.6561755493904,56.7879581451416,34.31328943195,-115.1656291745,49.28215064958658,23.450450783620735,259756,2.2441267823391438,707.0,40.79999923706055,864.0,957.0,95700.0,159.0,3.0999999046325684,109.71784935041342,51.55152134047967,1097.8438553079484,42.68878249702741
LT_101-102_A1,True,120.0,123.0,2,-185.033859,-54.314644,192.840881,186.072232,61.929381,196.107429,500.0,1.038373,7.614737,38.57,False,468.6561755493904,56.7879581451416,34.31328943195,-115.1656291745,49.28215064958658,23.450450783620735,259756,2.2441267823391438,707.0,40.79999923706055,864.0,957.0,95700.0,159.0,3.0999999046325684,109.71784935041342,51.55152134047967,1097.8438553079484,42.68878249702741
LT_101-102_A1,True,121.0,122.0,34,-21.736279,-18.985098,28.860003,21.793785,19.41959,29.190572,500.0,0.057506,0.434492,5.77,False,73.60160053051862,47.2519588470459,33.172992768149996,-116.197562667,196.75137436176485,82.21478769358605,240603,1.5911941943704755,192.0,43.599998474121094,868.0,999.0,99900.0,108.0,3.200000047683716,91.24862563823515,48.75125888818002,1097.5885361109797,6.70575521782569
LT_101-102_A1,True,121.0,325.0,1,364.295013,35.806248,366.050446,-347.59911,99.152325,361.46414,500.0,16.695904,134.958572,73.21,False,933.5376264690676,83.90244483947754,33.88950639194999,-116.599877614,309.8193181099749,126.63031816801767,233264,1.7623985492877712,289.0,43.099998474121094,895.0,996.0,99600.0,177.0,3.4000000953674316,47.180681890025085,69.36699486077123,1048.470655211924,89.03803094807405
LT_101-102_A1,True,123.0,217.0,B3,236.028961,-1.859811,236.03627,-230.971877,39.282239,234.288502,500.0,5.057085,37.422428,47.21,False,564.288179762571,61.075754165649414,34.73487458595,-114.99497599799999,9.71178695733397,79.62675421689616,263740,1.4324488671760864,638.0,39.79999923706055,865.0,941.0,94100.0,159.0,3.4000000953674316,149.28821304266603,55.03553815649502,1020.8059346926893,55.27869309776772
LT_101-102_A1,True,201.0,202.0,B1,17.208776,-30.585129,35.094048,-17.195969,30.644899,35.13988,175.0,0.012808,0.05977,20.05,False,153.91408762241855,48.07868003845215,36.2728130805,-113.73374720749999,330.06786134221716,4.4011989362247,264540,155.6214060520281,765.0,39.70000076293945,873.0,927.0,92700.0,189.0,3.9000000953674316,38.93213865778284,45.91448190341907,1104.6890091957675,13.93279794957593
LT_101-102_A1,True,201.0,203.0,B2,-56.46788,26.843607,62.523598,58.918862,-17.440751,61.446009,175.0,2.450982,9.402856,35.73,False,274.21352307493487,50.39481163024902,35.80503293055,-113.848714785,192.97069564697503,102.80891251473568,269393,112.52290251671089,362.0,41.20000076293945,742.0,962.0,96200.0,184.0,4.099999904632568,171.02930435302497,50.62548748387053,888.1517696136377,30.874624411796507
LT_101-102_A1,True,201.0,205.0,B3,64.259232,-16.442791,66.32959,-63.203618,20.521299,66.451644,175.0,1.055614,4.078508,37.9,False,290.90569224784485,50.81719398498535,36.1674465537,-113.852268562,230.19480725713623,30.595990672773983,264540,139.93990431001146,765.0,39.70000076293945,873.0,927.0,92700.0,189.0,3.9000000953674316,138.80519274286377,47.29512116537808,1114.911760467185,26.092261519059203
LT_101-102_A1,True,202.0,204.0,B4,33.646564,6.476819,34.264275,-33.213445,-4.809965,33.559927,175.0,0.433119,1.666853,19.58,False,150.13743873400588,48.02700996398926,36.24012743795,-113.98393331349999,255.58339309310898,44.09339369915581,260525,137.5558724758757,1528.0,35.400001525878906,624.0,847.0,84700.0,189.0,3.700000047683716,113.41660690689102,39.81939732270257,1234.155266280836,12.165198564233297
LT_101-102_A1,True,202.0,206.0,B5,50.138123,-14.388964,52.161991,-48.680164,19.987523,52.623754,175.0,1.457958,5.598559,29.81,False,228.56073061537904,49.36469078063965,36.0386798677,-113.8181726305,193.11788205041233,57.370194606690454,264540,132.24501532331928,765.0,39.70000076293945,873.0,927.0,92700.0,189.0,3.9000000953674316,175.88211794958767,51.0150655335965,814.7992721839573,28.051170198367195
LT_101-102_A1,True,203.0,209.0,B6,113.282547,-33.177441,118.041,-108.344504,52.133158,120.234761,175.0,4.938043,18.955717,67.45,False,529.7478839681822,59.44363594055176,35.5797547942,-114.0633830655,342.5346845645803,52.55291889027809,269393,81.32743088984492,362.0,41.20000076293945,742.0,962.0,96200.0,184.0,4.099999904632568,21.46531543541971,54.593694256480376,1007.9101095381766,52.55904062822747
LT_101-102_A1,True,203.0,224.0,B7,-183.748245,-17.537737,184.583282,184.532337,50.469591,191.3096,400.0,0.784092,32.931854,46.15,False,828.378301229253,76.46769523620605,35.355419888750006,-113.968093071,80.9533122476027,1.4399883635815744,270208,72.2396121632983,185.0,42.70000076293945,848.0,989.0,98900.0,187.0,3.9000000953674316,106.0466877523973,61.53772709589248,1155.6501905660446,71.68071341930106
LT_101-102_A1,True,204.0,209.0,B8,-31.945667,-5.366971,32.393364,32.267235,6.605603,32.936431,175.0,0.321568,1.238633,18.51,False,145.18772618014438,47.9605770111084,35.9976998197,-114.18635032750001,171.49301131316565,43.3047846821941,264540,106.2828182492113,765.0,39.70000076293945,873.0,927.0,92700.0,189.0,3.9000000953674316,17.506988686834347,47.52696587584069,956.2996673787386,15.182241627053015
LT_101-102_A1,True,205.0,210.0,B9,0.686087,-30.753908,30.76156,-0.464007,31.603606,31.607012,175.0,0.22208,0.849698,17.58,False,134.79447982411548,47.8293514251709,35.93352645830001,-114.072961317,206.60422896348982,36.22324095579948,264540,107.77888525794216,765.0,39.70000076293945,873.0,927.0,92700.0,189.0,3.9000000953674316,162.39577103651018,47.42428032933822,957.1944257010251,14.08224663713387
LT_101-102_A1,True,206.0,210.0,10,-71.071709,-131.795914,149.73761,71.894856,135.382485,153.28825,175.0,0.823148,3.586572,85.56,False,653.4331283938859,65.71047782897949,35.7876102904,-114.02661411900002,270.1901520712983,24.58276518571172,265345,100.34878020381882,697.0,39.70000076293945,872.0,932.0,93200.0,184.0,4.199999809265137,93.80984792870169,52.84495406150381,1241.037772268771,52.65215475265745
LT_101-102_A1,True,207.0,208.0,11,-0.066627,15.988096,15.988235,0.119223,-15.787574,15.788025,175.0,0.052596,0.200522,9.14,False,72.57609802525668,47.24539756774902,35.9931404214,-113.2002752525,238.0869400541825,24.9097490232365,269393,168.936732686421,362.0,41.20000076293945,742.0,962.0,96200.0,184.0,4.099999904632568,125.91305994581751,45.53898237550311,1172.793319529432,6.188311002178705
LT_101-102_A1,True,208.0,209.0,1,-86.112915,7.53249,86.441734,90.004114,7.398855,90.307716,175.0,3.891199,14.931345,49.4,False,397.1474214763511,54.065847396850586,35.869460766900005,-113.7342668105,259.4509328750614,76.42303064956775,269393,124.63888746734791,362.0,41.20000076293945,742.0,962.0,96200.0,184.0,4.099999904632568,104.54906712493857,48.46933819975675,1207.7468113163438,32.88333430112669
LT_101-102_A1,True,208.0,210.0,2,-64.575615,-21.136629,67.946793,66.930621,30.173281,73.417538,175.0,2.355006,9.036652,38.83,False,312.17436750560074,51.389665603637695,35.86081880785,-113.740291285,258.21609606641846,77.87575473426104,269393,123.57789086146938,362.0,41.20000076293945,742.0,962.0,96200.0,184.0,4.099999904632568,105.78390393358154,47.241918160296336,1205.9578949224115,25.886008858185328
LT_101-102_A1,True,209.0,211.0,14,-86.657837,-34.794884,93.382355,86.851931,42.946822,96.890079,400.0,0.194094,8.151938,23.35,False,412.1459612460064,54.60223197937012,35.803296077,-114.15919206150001,255.04753795152322,1.5606506659808639,264540,92.36331760486274,765.0,39.70000076293945,873.0,927.0,92700.0,189.0,3.9000000953674316,113.95246204847678,48.47038933433214,1178.9297255466645,34.95933237707584
LT_101-102_A1,True,209.0,212.0,15,-81.361656,-53.848297,97.5672,81.573536,62.74725,102.914815,400.0,0.21188,8.898952,24.39,False,430.615906292804,55.287065505981445,35.7982763547,-114.1484987875,164.51081322878485,1.5763836313303292,264540,92.71146744646519,765.0,39.70000076293945,873.0,927.0,92700.0,189.0,3.9000000953674316,24.489186771215145,51.431423335430736,1015.3749400800427,42.409546394641005
LT_101-102_A1,True,210.0,211.0,16,-157.178848,12.750286,157.695145,157.694637,8.912848,157.946312,400.0,0.515789,21.663134,39.42,False,671.863861826397,66.74223899841309,35.79465411795,-114.165216536,344.5036493141338,1.5763988480578353,264540,91.3311064017178,765.0,39.70000076293945,873.0,927.0,92700.0,189.0,3.9000000953674316,24.49635068586622,58.81916706778429,1015.4301397290271,66.16544413441258
LT_101-102_A1,True,210.0,212.0,17,-152.885788,-7.280835,153.059052,153.371695,27.688937,155.851064,400.0,0.485907,20.408102,38.26,False,652.1116789245942,65.63748359680176,35.78963439565,-114.154523262,75.03993290589335,1.560647321312595,264540,91.68344274909107,765.0,39.70000076293945,873.0,927.0,92700.0,189.0,3.9000000953674316,113.96006709410665,54.03145346210658,1178.9186605004647,55.31439112582756
LT_101-102_A1,True,211.0,213.0,18,-60.108185,-95.121788,112.521767,60.837884,100.959381,117.873003,500.0,0.729699,5.837593,22.5,False,287.1835714588434,50.720415115356445,35.9737901158,-114.3952240275,313.214519946109,56.101241393014526,260525,90.78880369689668,1528.0,35.400001525878906,624.0,847.0,84700.0,189.0,3.700000047683716,55.78548005389098,41.41164050596126,1215.6460389321358,23.623946630971222
LT_101-102_A1,True,211.0,214.0,19,-184.438446,43.262127,189.444321,186.31347,-27.511925,188.333787,500.0,1.875024,15.750202,37.89,False,483.5090858231508,57.40635871887207,35.68454797925,-114.33006002350001,228.5567635847391,39.217093492331436,264540,72.32209336765068,765.0,39.70000076293945,873.0,927.0,92700.0,189.0,3.9000000953674316,140.4432364152609,51.0166699952606,1107.605889821773,43.653531483202315
LT_101-102_A1,True,212.0,213.0,20,-70.36042,-61.212559,93.260742,70.847171,65.106565,96.219471,500.0,0.486751,3.894007,18.65,False,234.13282052645823,49.48115348815918,35.968770393499994,-114.3845307535,312.728141959339,58.27352990394753,260525,91.10269265356733,1528.0,35.400001525878906,624.0,847.0,84700.0,189.0,3.700000047683716,56.271858040661016,40.72726245906961,1216.6774140762002,19.243623479624695
LT_101-102_A1,True,212.0,223.0,21,-164.584869,-29.223516,167.159195,167.879906,55.858395,176.928864,500.0,3.295036,26.634878,33.43,False,419.6562558153595,54.87698554992676,35.80789751575,-114.84130532949999,272.07825544446206,125.42411855974576,257353,50.9569086479279,899.0,38.70000076293945,878.0,896.0,89600.0,189.0,3.5999999046325684,96.92174455553794,47.82806335968053,1182.9969585091292,35.47399279405003
LT_101-102_A1,True,213.0,223.0,22,-149.465225,-3.578361,149.508057,151.778502,21.874276,153.346658,500.0,2.313277,18.295916,29.9,False,363.8241239851702,52.94304847717285,35.985222525750004,-115.07967101,246.747631827701,89.64501743467814,253425,49.52932837718548,1082.0,39.0,730.0,903.0,90300.0,207.0,3.4000000953674316,140.252368172299,47.618478775024414,1085.2497895429751,33.524459298756035
LT_101-102_A1,True,214.0,216.0,23,-357.136047,1.618965,357.13974,363.832477,77.398903,371.974006,500.0,6.696429,79.017868,71.43,False,918.5455603210648,82.80097007751465,35.4145503497,-114.6116655375,212.44947011073543,40.306364052426176,265345,34.124564386584666,697.0,39.70000076293945,872.0,932.0,93200.0,184.0,4.199999809265137,151.55052988926457,67.07973794540885,1069.3643039188953,85.89641125618972
LT_101-102_A1,True,215.0,216.0,24,330.268158,-64.913811,336.587097,-328.045324,83.807901,338.581598,500.0,2.222834,18.894091,67.32,False,837.7216245714801,77.10085868835449,35.205040229,-114.65326848149999,311.7614206360051,18.865123622721175,266961,16.946118844596615,770.0,38.900001525878906,874.0,921.0,92100.0,184.0,4.199999809265137,52.238579363994916,59.2684166389663,1191.164667418681,70.32794436279484
LT_101-102_A1,True,215.0,221.0,1,-134.244781,-55.441086,145.242462,135.456423,65.336156,150.390345,500.0,1.211641,9.89507,29.05,False,361.4896480223704,52.8684139251709,35.23245624485,-114.8868583705,288.44475129996886,59.50731844131268,265345,2.742624339204692,697.0,39.70000076293945,872.0,932.0,93200.0,184.0,4.199999809265137,75.55524870003114,47.13627946063207,1221.0946442819957,29.603737082552392
LT_101-102_A1,True,215.0,221.0,2,-134.244781,-55.441086,145.242462,135.456423,65.336156,150.390345,500.0,1.211641,9.89507,29.05,False,361.4896480223704,52.8684139251709,35.23245624485,-114.8868583705,288.44475129996886,59.50731844131268,265345,2.742624339204692,697.0,39.70000076293945,872.0,932.0,93200.0,184.0,4.199999809265137,75.55524870003114,47.13627946063207,1221.0946442819957,29.603737082552392
LT_101-102_A1,True,215.0,224.0,26,187.240082,59.952557,196.60408,-184.532328,-39.837816,188.783558,500.0,2.707753,20.11474,39.32,False,489.322052933542,57.65240669250488,35.252514202,-114.2680134135,67.35719566640654,60.481416120695556,270208,43.88396367981343,185.0,42.70000076293945,848.0,989.0,98900.0,187.0,3.9000000953674316,119.64280433359346,52.63979469455808,1135.9513396344967,43.07596952973233
LT_101-102_A1,True,216.0,217.0,27,-372.252594,-28.350395,373.330627,376.312678,63.537796,381.638944,500.0,4.060084,35.187401,74.67,False,923.9660793747286,83.19792747497559,35.17461923495,-114.825963111,221.90828713981625,25.93674508970559,266153,3.0592867147694096,754.0,39.20000076293945,871.0,924.0,92400.0,184.0,4.199999809265137,142.09171286018375,64.67791281062091,1132.7182818894075,81.57068656414071
LT_101-102_A1,True,216.0,219.0,28,403.412537,-58.660625,407.655182,-398.57469,95.750782,409.91462,500.0,4.837846,37.090157,81.53,False,1008.9168501284828,89.63536262512207,35.34035338545,-114.85497218500001,307.96728213387195,28.554000463913425,264540,12.513730050764144,765.0,39.70000076293945,873.0,927.0,92700.0,189.0,3.9000000953674316,61.03271786612805,66.96662339808972,1171.0555804541732,86.15448036524383
LT_101-102_A1,True,217.0,218.0,29,-129.778397,-58.81266,142.482834,130.153109,61.435645,143.924182,500.0,0.374712,2.622985,28.5,False,345.1858253206952,52.35663414001465,35.10132792,-114.999522918,282.00426444829014,14.57343843515518,263731,2.135943719328595,927.0,37.5,877.0,903.0,90300.0,184.0,4.300000190734863,81.99573555170986,44.64523792266846,1271.577746432505,27.14626190094446
LT_101-102_A1,True,217.0,222.0,30,-15.562466,-21.361328,26.429087,15.605812,21.686425,26.717829,500.0,0.043346,0.325097,5.29,False,64.02838820968044,47.192087173461914,35.70936497125,-115.1056865365,346.55568240887214,142.19993312364048,257353,26.265606048579304,899.0,38.70000076293945,878.0,896.0,89600.0,189.0,3.5999999046325684,22.444317591127856,45.92418381943571,981.5674246682319,6.523075909056572
LT_101-102_A1,True,218.0,221.0,1,-34.184628,15.970783,37.731346,34.226509,-15.607811,37.617252,500.0,0.041881,0.362972,7.55,False,90.50461117768384,47.37744331359863,35.2156142699,-115.13791234499999,334.068802934961,24.91093291739191,260530,0.6477738589819187,1220.0,36.20000076293945,892.0,874.0,87400.0,184.0,4.199999809265137,29.931197065038987,42.610069633497915,1117.1059470255884,8.10170346140058
LT_101-102_A1,True,218.0,221.0,2,-34.184628,15.970783,37.731346,34.226509,-15.607811,37.617252,500.0,0.041881,0.362972,7.55,False,90.50461117768384,47.37744331359863,35.2156142699,-115.13791234499999,334.068802934961,24.91093291739191,260530,0.6477738589819187,1220.0,36.20000076293945,892.0,874.0,87400.0,184.0,4.199999809265137,29.931197065038987,42.610069633497915,1117.1059470255884,8.10170346140058
LT_101-102_A1,True,219.0,220.0,1,119.599518,-61.632145,134.545776,-118.753062,68.403789,137.045132,500.0,0.846455,6.771644,26.91,False,331.3370756044462,51.93917274475098,35.532956375,-115.2128843045,301.01727582000524,49.281334286649994,258141,6.324163197299666,954.0,38.900001525878906,889.0,903.0,90300.0,189.0,3.5999999046325684,67.98272417999476,46.83887990935182,1157.8711453926103,28.616057747263113
LT_101-102_A1,True,219.0,220.0,2,119.599518,-61.632145,134.545776,-118.753062,68.403789,137.045132,500.0,0.846455,6.771644,26.91,False,331.3370756044462,51.93917274475098,35.532956375,-115.2128843045,301.01727582000524,49.281334286649994,258141,6.324163197299666,954.0,38.900001525878906,889.0,903.0,90300.0,189.0,3.5999999046325684,67.98272417999476,46.83887990935182,1157.8711453926103,28.616057747263113
LT_101-102_A1,True,220.0,223.0,1,62.399216,-71.074875,94.579597,-62.159371,72.833732,95.752494,500.0,0.239844,1.758858,18.92,False,228.91297330825117,49.37207221984863,35.73552259805,-115.491516237,337.70442527395744,21.35444911338634,253425,5.089453500966101,1082.0,39.0,730.0,903.0,90300.0,207.0,3.4000000953674316,49.29557472604256,45.15145683288574,1119.07289225605,20.455590953218678
LT_101-102_A1,True,220.0,223.0,2,62.399216,-71.074875,94.579597,-62.159371,72.833732,95.752494,500.0,0.239844,1.758858,18.92,False,228.91297330825117,49.37207221984863,35.73552259805,-115.491516237,337.70442527395744,21.35444911338634,253425,5.089453500966101,1082.0,39.0,730.0,903.0,90300.0,207.0,3.4000000953674316,49.29557472604256,45.15145683288574,1119.07289225605,20.455590953218678
LT_101-102_A1,True,221.0,222.0,34,15.634147,-17.616959,23.553848,-15.605813,17.831039,23.695724,500.0,0.028334,0.21408,4.71,False,56.69793657160936,47.151899337768555,35.823651321149995,-115.2440759635,355.81008268792635,113.13137799107704,253425,27.06993274564634,1082.0,39.0,730.0,903.0,90300.0,207.0,3.4000000953674316,31.189917312073646,44.56387901306152,1041.5682386016406,5.4435162738573215
LT_101-102_A1,True,223.0,318.0,1,134.660355,62.858509,148.608887,-131.861105,-40.46451,137.930154,500.0,2.79925,22.393999,29.72,False,355.27696204768915,52.67075538635254,35.6650814384,-116.25650849249999,255.190966299923,134.83363637092583,239061,1.6960774471141216,224.0,43.70000076293945,889.0,982.0,98200.0,174.0,3.4000000953674316,98.80903370007701,51.66061646378512,1091.9513528603932,32.53596976797844
LT_101-102_A1,True,301.0,302.0,C1,10.694723,-31.721085,33.47543,-10.687461,31.754975,33.505228,175.0,0.007262,0.033891,19.13,False,145.7694696601651,47.96795845031738,35.03875954075,-118.843312456,243.44298077505434,4.386662067124732,193839,1.9317872823073838,197.0,44.29999923706055,909.0,993.0,99300.0,357.0,1.7999999523162842,113.55701922494566,52.388906318148656,871.4525943299375,16.727182936697513
LT_101-102_A1,True,301.0,303.0,C2,-13.981703,17.456228,22.365328,14.338591,-16.087075,21.549691,175.0,0.356888,1.369153,12.78,False,97.39029495171955,47.43649482727051,35.132562363350004,-118.432657652,74.8245157929639,73.24899856739759,201352,1.1569499647389767,1234.0,37.29999923706055,936.0,873.0,87300.0,149.0,2.200000047683716,74.1754842070361,44.899035862523306,1017.6775017708618,9.569858307985642
LT_101-102_A1,True,301.0,305.0,C3,33.798889,0.527622,33.803005,-33.526025,0.526627,33.530161,175.0,0.272864,1.054249,19.32,False,147.1959019427057,47.9868221282959,34.96073353885,-118.666126353,124.16098495024664,34.31766044565577,197187,1.159579646235395,1318.0,37.70000076293945,935.0,876.0,87600.0,357.0,1.7000000476837158,52.83901504975336,47.14499565544975,908.64019027971,16.199580815085213
LT_101-102_A1,True,302.0,304.0,C4,20.69969,16.39168,26.403872,-20.431797,-15.360698,25.561873,175.0,0.267893,1.030982,15.09,False,114.83400580008608,47.60380744934082,34.83101416905,-118.714222427,148.04905085666337,52.08829416605541,196510,2.4486343801899135,1006.0,38.0,934.0,886.0,88600.0,357.0,1.7999999523162842,28.95094914333663,48.277565002441406,837.5378719829828,13.710903069756263
LT_101-102_A1,True,302.0,306.0,C5,28.595695,-3.843175,28.852793,-28.152748,5.544094,28.693452,175.0,0.442948,1.700918,16.49,False,125.48469401422196,47.71944999694824,34.95855226255,-118.57052961950001,106.3161668365982,55.94519037768375,198553,1.5187727987860509,1572.0,33.79999923706055,945.0,816.0,81600.0,357.0,1.7999999523162842,70.6838331634018,42.833762010028295,986.9909168651603,12.713865129861706
LT_101-102_A1,True,303.0,309.0,C6,16.997725,-10.920026,20.203207,-16.860193,11.447969,20.379453,175.0,0.137531,0.527943,11.54,False,91.3158664037264,47.38400459289551,34.976650231700006,-118.08544598200001,188.13452627185995,54.11331791886194,206968,1.4846723558012531,783.0,40.099998474121094,929.0,919.0,91900.0,149.0,2.299999952316284,140.86547372814005,48.167501317497226,928.0948026594893,9.839066670997129
LT_101-102_A1,True,303.0,324.0,C7,-163.816498,4.84771,163.888214,164.443482,21.485634,165.841163,400.0,0.626984,26.333344,40.97,False,740.7533989415306,70.81597328186035,35.212062175599996,-118.039183389,146.93439430470073,1.454265274314389,208330,1.7152550570184055,708.0,40.79999923706055,922.0,932.0,93200.0,149.0,2.4000000953674316,2.0656056952992685,79.77321944144933,660.987270730268,112.06772531687876
LT_101-102_A1,True,304.0,309.0,C8,-34.032215,7.368503,34.820774,34.415629,-5.891647,34.916286,175.0,0.383414,1.476855,19.9,False,156.41215711178614,48.11394691467285,34.68392469455,-118.345463673,73.75738112970913,41.52056208016359,202769,0.8280799601706181,773.0,40.0,925.0,927.0,92700.0,189.0,3.0,115.24261887029087,46.732730865478516,1076.8324491552999,14.525208377076732
LT_101-102_A1,True,305.0,310.0,C9,-18.730011,-8.726745,20.663239,18.83383,9.123967,20.927492,175.0,0.103819,0.397222,11.81,False,90.79948379904036,47.37990379333496,34.801600393499996,-118.30750604849999,113.32976259868565,40.40249884327066,203469,1.1424100378689062,748.0,40.5,926.0,931.0,93100.0,149.0,2.5,35.67023740131435,48.371514320373535,933.9925557100449,9.7216496259986
LT_101-102_A1,True,306.0,310.0,10,-71.943306,-111.96904,133.089844,72.743356,115.454973,136.460421,175.0,0.80005,3.485933,76.05,False,585.0515042735622,62.10095405578613,34.808241774349995,-118.190362231,138.18711791697945,23.53186086187305,205576,0.9386546028337737,713.0,40.70000076293945,925.0,933.0,93300.0,149.0,2.4000000953674316,10.812882083020554,65.70599489633605,748.6181886189196,78.1508535549862
LT_101-102_A1,True,307.0,308.0,11,-47.998848,19.607649,51.849293,48.543052,-17.532873,51.6123,175.0,0.544204,2.074776,29.63,False,242.7757090525328,49.66568946838379,34.16299173335,-118.7662179435,56.26178119320775,24.75670932515617,195171,1.4464621072353085,372.0,29.5,907.0,976.0,97600.0,243.0,3.5999999046325684,6.738218806792247,41.06610584259033,977.9545503884195,24.824845792282296
LT_101-102_A1,True,308.0,309.0,1,-91.424644,7.423324,91.725525,96.018427,10.203982,96.559099,175.0,4.593783,17.627306,52.41,False,431.667798594689,55.327253341674805,34.4802378884,-118.39079997799999,40.21333607696363,74.5767423466253,202071,1.4426397722920923,762.0,39.599998474121094,919.0,939.0,93900.0,189.0,3.299999952316284,148.78666392303637,51.702188198119984,1010.7460096998276,42.70784098597491
LT_101-102_A1,True,308.0,310.0,2,-82.972023,-14.299861,84.195259,86.803007,29.000147,91.519236,175.0,3.830984,14.700286,48.11,False,396.2297528920076,54.03386116027832,34.4770168747,-118.37939134349999,41.771399382824995,75.41473787810489,202071,1.436609056439648,762.0,39.599998474121094,919.0,939.0,93900.0,189.0,3.299999952316284,147.228600617175,50.7133698315738,1019.8946627902293,38.85006632037878
LT_101-102_A1,True,309.0,311.0,14,-103.361656,-18.236364,104.958069,103.615007,28.877117,107.563738,400.0,0.253351,10.640753,26.24,False,470.8763111043115,56.87899589538574,34.7389259,-118.11963760200001,63.413327538162264,1.5744173883172414,206974,2.0006750741101893,711.0,41.20000076293945,925.0,943.0,94300.0,189.0,3.0999999046325684,125.58667246183774,52.911467700127105,1052.8735355857991,44.722969586496895
LT_101-102_A1,True,309.0,312.0,15,-139.013168,-15.090699,139.829865,139.462836,33.976727,143.541982,400.0,0.449667,18.886028,34.96,False,627.3226216977554,64.29078102111816,34.7293605034,-118.12361469999999,154.41113041358733,1.577419398220969,206278,1.4537852103916686,706.0,41.099998474121094,924.0,944.0,94400.0,189.0,3.0,34.58886958641267,59.229650439127,975.4116010633828,64.31363139559292
LT_101-102_A1,True,310.0,311.0,16,-142.592743,22.066835,144.2901,143.041008,-3.239691,143.077691,400.0,0.448265,18.827145,36.07,False,626.343833904183,64.23829078674316,34.7357048863,-118.1082289675,334.52631029314165,1.573879005359757,206974,0.9642253309948795,711.0,41.20000076293945,925.0,943.0,94300.0,189.0,3.0999999046325684,34.47368970685835,59.044585353498405,982.3086257216808,63.76242837570747
LT_101-102_A1,True,310.0,312.0,17,-179.30835,26.558558,181.264572,180.015787,3.153807,180.043412,400.0,0.707437,29.712364,45.32,False,786.8450224754214,73.7250804901123,34.726139489699996,-118.11220606549999,243.29540826571312,1.571676799018731,206974,1.1628829141889936,711.0,41.20000076293945,925.0,943.0,94300.0,189.0,3.0999999046325684,125.70459173428688,62.73720008609962,1052.6184117311432,74.75121218727031
LT_101-102_A1,True,311.0,313.0,18,-172.488571,-56.722866,181.575851,174.621759,73.788372,189.57184,500.0,2.133188,17.065506,36.32,False,476.92518919048456,57.12996482849121,34.50368100025,-118.065394118,170.8349978934301,53.70230936357421,207669,1.5864932931362066,1163.0,39.20000076293945,930.0,914.0,91400.0,189.0,3.299999952316284,18.165002106569887,55.04272912967281,911.8294799063169,52.30420815517883
LT_101-102_A1,True,311.0,314.0,19,-74.167709,31.08559,80.418678,74.536305,-27.989385,79.618255,500.0,0.368596,3.096205,16.08,False,211.22683995901335,49.02186393737793,34.8435290479,-117.8984061615,59.815032333039426,45.030436553750164,210340,0.7293270345475279,697.0,41.0,926.0,934.0,93400.0,149.0,2.5,89.18496766696057,48.454092025756836,1040.168648187719,20.306980058188916
LT_101-102_A1,True,312.0,313.0,20,-107.210861,-66.294563,126.052132,108.21275,74.309677,131.270436,500.0,1.001889,8.015114,25.21,False,330.531915705123,51.915388107299805,34.49411560365,-118.069371216,169.66021641891973,51.728822906200705,207669,0.9469890389000564,1163.0,39.20000076293945,930.0,914.0,91400.0,189.0,3.299999952316284,19.33978358108027,50.910263019140984,921.9190798245932,35.85259519393079
LT_101-102_A1,True,312.0,323.0,21,-212.268112,29.164066,214.262207,218.361888,20.093956,219.284475,500.0,6.093776,49.258022,42.85,False,561.8349854083993,60.956830978393555,34.4879832208,-117.61655421500001,119.24125114688786,106.0334140418212,215042,0.37812492327164215,1076.0,39.0,926.0,908.0,90800.0,170.0,2.9000000953674316,50.75874885311214,54.026296615600586,1050.756817702937,53.46955412924455
LT_101-102_A1,True,313.0,323.0,22,-188.294907,62.243557,198.315994,192.787724,-26.709454,194.629139,500.0,4.492818,35.534103,39.66,False,499.7087366448603,58.1002140045166,34.25913575225,-117.56603806300001,90.68381410399729,83.24113817308535,215722,1.5973050712788772,2210.0,28.0,955.0,771.0,77100.0,170.0,3.200000047683716,79.31618589600271,41.03787612915039,1252.6176802065804,39.89315690981217
LT_101-102_A1,True,314.0,316.0,23,-217.320557,7.231586,217.440842,219.972741,24.064195,221.285093,500.0,2.652184,31.29578,43.49,False,577.7287276562989,61.73598289489746,35.0416656677,-117.46823389549999,61.27736452675009,44.927729327005714,217731,1.1754647648536851,757.0,40.79999923706055,920.0,924.0,92400.0,136.0,2.700000047683716,74.72263547324991,55.740405327924236,1040.647837431907,55.51625697719298
LT_101-102_A1,True,315.0,316.0,24,22.92314,13.969202,26.844162,-22.906515,-13.827891,26.756662,500.0,0.016625,0.141312,5.37,False,70.01457546035397,47.22899436950683,35.2021686149,-117.31901108699999,139.1505915831454,18.746587950621127,220478,1.894277405563819,1001.0,38.900001525878906,920.0,894.0,89400.0,136.0,3.0,176.8494084168546,50.44171420337807,738.4446604508315,9.481357129403444
LT_101-102_A1,True,315.0,321.0,1,-128.929504,4.538643,129.009369,130.011856,4.30056,130.082964,500.0,1.082351,8.839203,25.8,False,336.4804683023128,52.09254264831543,35.50565725275,-117.25089816349998,24.63912469184521,58.68035354688509,221165,1.909962955671058,792.0,40.79999923706055,913.0,929.0,92900.0,143.0,3.200000047683716,118.36087530815479,49.45668032942194,1080.4016363289625,31.14401690889893
LT_101-102_A1,True,315.0,321.0,2,-128.929504,4.538643,129.009369,130.011856,4.30056,130.082964,500.0,1.082351,8.839203,25.8,False,336.4804683023128,52.09254264831543,35.50565725275,-117.25089816349998,24.63912469184521,58.68035354688509,221165,1.909962955671058,792.0,40.79999923706055,913.0,929.0,92900.0,143.0,3.200000047683716,118.36087530815479,49.45668032942194,1080.4016363289625,31.14401690889893
LT_101-102_A1,True,315.0,324.0,26,166.623428,27.849289,168.934753,-164.443551,-11.655916,164.856125,500.0,2.179877,16.193373,33.79,False,440.61330772012025,55.67008018493652,35.2362759736,-117.71062519,263.78864241348344,59.25640398232974,213678,1.7859132718646786,892.0,39.20000076293945,925.0,901.0,90100.0,143.0,2.799999952316284,59.211357586516556,50.90624232823757,1051.381269714199,41.90804234508513
LT_101-102_A1,True,316.0,317.0,27,-161.834473,-0.799736,161.836456,162.688532,8.201585,162.895133,500.0,0.85406,7.401849,32.37,False,423.5215244212416,55.0205135345459,35.25840025645,-117.15370904899999,33.601264589227526,32.0703414274824,223263,1.5292915789926425,958.0,39.29999923706055,915.0,904.0,90400.0,142.0,3.4000000953674316,108.39873541077247,49.20831016313605,1133.1077265593044,37.376986714870434
LT_101-102_A1,True,316.0,319.0,28,-46.831871,12.346402,48.431988,46.910334,-11.744853,48.358257,500.0,0.078463,0.601549,9.69,False,126.74517161022904,47.73421287536621,35.0279991523,-117.188004079,154.70724354717186,27.138990967823084,222571,2.112861749248584,640.0,41.29999923706055,912.0,937.0,93700.0,136.0,3.4000000953674316,161.29275645282814,49.62152007284021,899.3575186789221,14.092857287322918
LT_101-102_A1,True,317.0,318.0,29,-119.716393,0.515172,119.717499,120.024409,1.640941,120.035625,500.0,0.308016,2.156113,23.94,False,311.48126042217996,51.37080192565918,35.44212331835,-117.01620042849999,26.8584961244473,15.879932652806714,225363,0.9337792042101049,1006.0,39.79999923706055,910.0,912.0,91200.0,142.0,3.4000000953674316,115.1415038755527,47.81007350014261,1118.2075101045325,27.855407659805646
LT_101-102_A1,True,317.0,322.0,30,-42.972115,-3.626526,43.12487,43.256517,5.759544,43.63827,500.0,0.284402,2.133018,8.62,False,112.2023845748954,47.57674217224121,35.9086959435,-117.27055059599999,341.9673129068019,124.1052965213618,221155,2.268894183696831,816.0,40.5,909.0,924.0,92400.0,151.0,3.700000047683716,169.0326870931981,49.51354122161865,858.7299516169174,13.066084904064146
LT_101-102_A1,True,318.0,321.0,1,-31.625854,-1.920841,31.684134,31.657946,2.198969,31.734225,500.0,0.032092,0.278128,6.34,False,82.23461220866781,47.31265068054199,35.625578804750006,-117.045967096,334.8207162541743,29.440966906351033,224654,2.1245980851639903,744.0,41.900001525878906,903.0,946.0,94600.0,142.0,3.4000000953674316,167.17928374582573,50.59054845159699,839.7112398923854,9.793201317539435
LT_101-102_A1,True,318.0,321.0,2,-31.625854,-1.920841,31.684134,31.657946,2.198969,31.734225,500.0,0.032092,0.278128,6.34,False,82.23461220866781,47.31265068054199,35.625578804750006,-117.045967096,334.8207162541743,29.440966906351033,224654,2.1245980851639903,744.0,41.900001525878906,903.0,946.0,94600.0,142.0,3.4000000953674316,167.17928374582573,50.59054845159699,839.7112398923854,9.793201317539435
LT_101-102_A1,True,319.0,320.0,1,-90.063301,-5.494152,90.230728,90.506068,9.036287,90.956049,500.0,0.442767,3.542135,18.05,False,236.61600792970808,49.53364372253418,34.69004841255,-117.0939638955,173.7034075408551,50.917641569310206,223976,0.5349460739898468,1137.0,38.0,921.0,888.0,88800.0,147.0,3.9000000953674316,153.2965924591449,46.397300720214844,1041.6554007336733,22.715382434829348
LT_101-102_A1,True,319.0,320.0,2,-90.063301,-5.494152,90.230728,90.506068,9.036287,90.956049,500.0,0.442767,3.542135,18.05,False,236.61600792970808,49.53364372253418,34.69004841255,-117.0939638955,173.7034075408551,50.917641569310206,223976,0.5349460739898468,1137.0,38.0,921.0,888.0,88800.0,147.0,3.9000000953674316,153.2965924591449,46.397300720214844,1041.6554007336733,22.715382434829348
LT_101-102_A1,True,320.0,323.0,1,-137.610138,-10.949809,138.04509,138.224749,15.456958,139.0863,500.0,0.614611,4.507149,27.61,False,359.6933982168968,52.81100273132324,34.35773449745,-117.0883646675,191.09942568688564,23.73400695445522,223984,1.7037065959877034,1551.0,34.20000076293945,934.0,840.0,84000.0,147.0,3.9000000953674316,135.90057431311436,43.578439679367875,1183.103797958696,30.402522486826996
LT_101-102_A1,True,320.0,323.0,2,-137.610138,-10.949809,138.04509,138.224749,15.456958,139.0863,500.0,0.614611,4.507149,27.61,False,359.6933982168968,52.81100273132324,34.35773449745,-117.0883646675,191.09942568688564,23.73400695445522,223984,1.7037065959877034,1551.0,34.20000076293945,934.0,840.0,84000.0,147.0,3.9000000953674316,135.90057431311436,43.578439679367875,1183.103797958696,30.402522486826996
LT_101-102_A1,True,321.0,322.0,34,-30.006248,1.991916,30.07229,30.099906,-1.284284,30.127292,500.0,0.093657,0.707632,6.01,False,77.98314511723908,47.282304763793945,36.0921514299,-117.30031726349999,336.7951627128865,83.98330271350771,220456,0.23954791994549104,372.0,43.400001525878906,904.0,972.0,97200.0,151.0,3.799999952316284,174.2048372871135,52.70647461693443,775.6722584296606,10.053620491096979
LT_101-102_A1,True,323.0,325.0,35,-347.599121,92.289978,359.642303,347.599121,-79.922646,356.669004,722.0,0.0,12.367332,49.81,False,930.525523939071,83.6801815032959,34.252447341449994,-117.12109914749999,265.12388154306666,1.4534200752008906,223288,1.6967119263507657,1700.0,34.70000076293945,936.0,853.0,85300.0,147.0,3.5,61.87611845693334,61.51271219288901,1188.842565909785,78.27155172787477
LT_101-103_A2,True,101.0,102.0,A1,55.125637,-38.955105,67.500641,-55.017531,39.4596,67.70516,175.0,0.108106,0.504495,38.57,False,293.0358407770805,50.87214469909668,33.3768908526,-113.8307877345,168.0832196909272,4.366718050928278,272693,66.37854754514882,91.0,43.29999923706055,830.0,1002.0,100200.0,122.0,3.200000047683716,133.9167803090728,50.88101256307709,1032.0736797745278,28.392918695601136
LT_101-103_A2,True,101.0,105.0,A3,116.585388,-10.428183,117.050842,-113.34493,22.948135,115.644672,175.0,3.240458,12.519953,66.89,False,508.144684124336,58.47010612487793,33.527831551000006,-113.917332536,332.7077807708397,32.97810897483768,272693,55.37740896846629,91.0,43.29999923706055,830.0,1002.0,100200.0,122.0,3.200000047683716,149.2922192291603,56.57791009081848,963.4977724943705,52.739580581366106
LT_101-103_A2,True,102.0,104.0,A4,95.607407,4.786793,95.727165,-92.350989,7.745483,92.675227,175.0,3.256418,12.532276,54.7,False,415.19844653525865,54.71295356750488,33.58499098295,-113.82567627200001,0.053868993317280456,50.552094829892674,273508,61.87228040205209,89.0,43.20000076293945,832.0,999.0,99900.0,122.0,3.0,121.94613100668272,52.82630153919308,1041.5330631958345,39.86416381840687
LT_101-103_A2,True,102.0,106.0,A5,83.920952,-9.034327,84.40583,-80.112737,23.657871,83.532901,175.0,3.808215,14.623545,48.23,False,366.0943003432634,53.016862869262695,33.54785744425,-114.003928834,322.14286051780334,53.63905217588826,272693,47.56965144659038,91.0,43.29999923706055,830.0,1002.0,100200.0,122.0,3.200000047683716,159.85713948219666,54.46315864868666,890.7119722186746,41.101311283754164
LT_101-103_A2,True,103.0,109.0,A6,-63.981171,2.229001,64.019981,65.479992,3.52454,65.57478,175.0,1.498822,5.753541,36.58,False,290.6270192321091,50.80981254577637,33.72863454765,-114.48934004450001,38.03489934721705,54.229833774295344,273508,0.9566740748851706,89.0,43.20000076293945,832.0,999.0,99900.0,122.0,3.0,83.96510065278295,50.23404385832691,1078.7158164828188,26.941944744975196
LT_101-103_A2,True,103.0,124.0,A7,-89.833763,-33.846554,95.998413,90.050772,42.960946,99.773666,400.0,0.217009,9.114392,24.0,False,435.79726493831595,55.484724044799805,33.53989894155,-114.6634437025,62.122581397062504,1.4584863725043906,270245,1.1363138040058882,75.0,43.5,835.0,1001.0,100100.0,122.0,3.200000047683716,59.877418602937496,53.19347286224365,1059.3326668731872,41.138848877817644
LT_101-103_A2,True,104.0,109.0,A8,29.115952,-17.50585,33.973423,-28.769759,18.839332,34.389235,175.0,0.346193,1.333482,19.41,False,152.54780854524262,48.05981636047363,33.8663698982,-114.066850007,285.22792751338363,46.175372092212655,277498,39.42199663193729,151.0,42.29999923706055,833.0,989.0,98900.0,107.0,2.5999999046325684,1.7720724866163664,54.111399693960266,681.7502693611173,22.375907337476878
LT_101-103_A2,True,105.0,110.0,A9,52.673477,-32.803051,62.052685,-51.712383,36.480281,63.284923,175.0,0.961094,3.67723,35.46,False,272.9391928399893,50.36364555358887,33.786176454599996,-114.14599382399999,316.1102545640957,39.125724159032,273508,31.981051974502726,89.0,43.20000076293945,832.0,999.0,99900.0,122.0,3.0,165.88974543590427,53.7343017189487,823.750016524775,33.133740499509955
LT_101-103_A2,True,106.0,110.0,10,-36.102997,-133.009033,137.821732,36.381299,134.221633,139.064898,175.0,0.278302,1.2126,78.76,False,607.1592920574059,63.22949409484863,33.82541475805,-114.23744436449999,332.2035219612036,21.973081610449327,273508,25.547898565618038,89.0,43.20000076293945,832.0,999.0,99900.0,122.0,3.0,149.7964780387964,60.14868005221797,942.7859993722285,64.40054184742817
LT_101-103_A2,True,107.0,108.0,11,87.91301,24.013803,91.133751,-86.477513,-18.540972,88.442794,175.0,1.435497,5.472832,52.08,False,395.3618551187385,54.00351524353027,34.57823637615,-113.7314761945,191.80450991680215,27.040331428742554,280694,48.23352083597048,170.0,42.0,826.0,991.0,99100.0,137.0,2.5,125.19549008319785,52.213775634765625,1000.8290183522827,39.50343643808844
LT_101-103_A2,True,107.0,203.0,B1,160.271027,-0.916615,160.273651,-148.670135,45.3867,155.443757,175.0,11.600891,44.470085,91.58,False,695.3086786256965,68.0905818939209,35.0258321095,-113.838621218,341.18656177700467,77.23111035384919,273483,67.12170109617558,151.0,42.5,838.0,987.0,98700.0,137.0,3.0999999046325684,155.81343822299533,63.910231590270996,921.2724485667935,75.4726443526424
LT_101-103_A2,True,108.0,109.0,1,-24.374935,1.176626,24.403316,24.67171,-0.037838,24.671739,175.0,0.296775,1.138789,13.94,False,109.13354374848262,47.54639625549317,34.18982353435,-114.034962272,220.15903880363092,78.21129921512714,280694,14.468759995973627,170.0,42.0,826.0,991.0,99100.0,137.0,2.5,96.84096119636908,47.862457275390625,1040.9841760538727,10.483689018423156
LT_101-103_A2,True,108.0,110.0,2,-35.271755,-11.009749,36.950119,35.923165,13.509344,38.379371,175.0,0.65141,2.499595,21.11,False,165.24383114156038,48.241891860961914,34.1860019329,-114.0273040675,218.96149073017423,77.97500234740549,280694,15.230903469254052,170.0,42.0,826.0,991.0,99100.0,137.0,2.5,98.03850926982577,48.279815673828125,1038.9794720378793,15.90443657346253
LT_101-103_A2,True,109.0,111.0,14,-81.972191,-15.843195,83.489204,82.129222,22.43852,85.139276,400.0,0.157032,6.595325,20.87,False,370.7137741078953,53.16777229309082,33.91241117325,-114.304699342,159.67425780531744,1.9031858797390406,273502,18.441799885429408,97.0,42.79999923706055,833.0,991.0,99100.0,107.0,2.700000047683716,127.32574219468256,52.25127032899036,1003.6141417602157,36.937878680915055
LT_101-103_A2,True,109.0,112.0,15,-128.952057,-28.041426,131.965714,129.344384,44.519173,136.791544,400.0,0.392327,16.477747,32.99,False,585.9620830710412,62.14688301086426,33.9156511436,-114.31084169450001,203.947168667828,1.1643839227143522,273502,17.80785802409589,97.0,42.79999923706055,833.0,991.0,99100.0,107.0,2.700000047683716,83.05283133217199,56.61588826498337,1048.6219145928005,55.87925208473077
LT_101-103_A2,True,110.0,111.0,16,-69.52652,13.750044,70.873131,69.633419,-9.260263,70.246463,400.0,0.1069,4.48978,17.72,False,305.8674216551146,51.21579170227051,33.9085895718,-114.2970411375,218.83185834528146,1.199999298332487,273502,19.225322946508676,97.0,42.79999923706055,833.0,991.0,99100.0,107.0,2.700000047683716,68.16814165471854,50.758985167245555,1028.404391386048,29.741940448433617
LT_101-103_A2,True,110.0,112.0,17,-117.698418,0.58486,117.699875,117.993243,11.797799,118.58159,400.0,0.294825,12.382659,29.42,False,507.9577660450656,58.46190452575683,33.91182954215,-114.30318349000001,263.52385649728956,1.8981503306103409,273502,18.59008452775047,97.0,42.79999923706055,833.0,991.0,99100.0,107.0,2.700000047683716,23.476143502710443,58.50416647017846,875.7842274815599,58.00033274243466
LT_101-103_A2,True,111.0,113.0,18,-255.575531,3.845898,255.604477,259.825274,30.152042,261.568955,500.0,4.249743,33.99794,51.12,False,667.772421867822,66.51095390319824,34.1293332045,-114.287887337,2.7798809616962217,50.08528154115857,277498,4.623035951639475,151.0,42.29999923706055,833.0,989.0,98900.0,107.0,2.5999999046325684,104.22011903830378,59.213892998835945,1034.9994403027815,64.51910946661673
LT_101-103_A2,True,111.0,114.0,19,103.812912,-17.024157,105.199539,-103.220139,22.003446,105.539324,500.0,0.592773,4.97929,21.04,False,274.8361521750982,50.4103946685791,33.84073608285,-114.56051449450001,253.6860893720658,49.96150226236739,271871,2.0077707949584878,269.0,42.599998474121094,839.0,987.0,98700.0,107.0,2.700000047683716,33.313910627934206,51.44090773411153,936.5041460602279,29.347029944427295
LT_101-103_A2,True,112.0,113.0,20,-175.714386,16.405962,176.478607,177.684665,-0.643728,177.685831,500.0,1.970279,15.762234,35.3,False,453.57973501565033,56.179399490356445,34.132573174849995,-114.29402968950001,4.126021058856338,49.43428786192113,277498,4.172118022807155,151.0,42.29999923706055,833.0,989.0,98900.0,107.0,2.5999999046325684,102.87397894114366,53.12813972635922,1036.7789137969953,43.74893518566126
LT_101-103_A2,True,112.0,123.0,21,-71.623215,-72.722939,102.071106,72.768505,81.980703,109.617932,500.0,1.14529,9.257765,20.41,False,262.33992889707224,50.10939598083496,34.14643314265,-114.691095425,307.21393123188295,87.0443510046333,269416,1.9810322366643094,324.0,41.70000076293945,849.0,971.0,97100.0,128.0,2.799999952316284,0.7860687681170475,55.90230955644074,688.1021386702778,38.12514366021747
LT_101-103_A2,True,113.0,123.0,22,24.249166,-89.140358,92.379791,-23.443375,95.513436,98.348403,500.0,0.805792,6.373078,18.48,False,236.38798498944087,49.52872276306152,34.3681403032,-114.6717226875,272.6456124243665,72.95310639099516,270224,1.0590202066430323,388.0,41.400001525878906,847.0,966.0,96600.0,137.0,2.799999952316284,44.354387575633496,49.03796800748387,1007.7230552493111,23.457633896344507
LT_101-103_A2,True,113.0,215.0,B2,286.402466,-48.953365,290.55603,-277.701101,114.213604,300.270959,500.0,8.701365,65.260239,58.11,False,743.4954519244533,70.98492622375488,34.7514356122,-114.425215633,342.78515118710203,92.50852375989442,273483,7.038480495579008,151.0,42.5,838.0,987.0,98700.0,137.0,3.0999999046325684,154.21484881289797,65.52420139312744,932.388400799089,79.74095894878701
LT_101-103_A2,True,114.0,116.0,23,-62.558193,-47.194065,78.363297,62.871255,50.888195,80.885123,500.0,0.313062,3.69413,15.67,False,204.4351318581578,48.89473915100098,33.71905866655,-115.07048464,254.58110202453383,48.11325865555416,262163,1.5254500733407452,387.0,42.79999923706055,848.0,984.0,98400.0,125.0,3.0999999046325684,50.418897975466166,49.43110430298111,1036.3115443735392,19.727188505049504
LT_101-103_A2,True,115.0,116.0,24,-127.864029,-23.74358,130.049866,128.210241,26.686383,130.958119,500.0,0.346212,2.942804,26.01,False,331.05334928320383,51.93097114562988,33.5836074796,-115.325283222,2.6007230139453554,17.236067799848346,256615,1.991195585655014,994.0,37.79999923706055,878.0,903.0,90300.0,123.0,3.4000000953674316,120.39927698605464,46.06113474955055,1146.9799543644317,28.863045777172996
LT_101-103_A2,True,115.0,121.0,1,-39.40033,3.895499,39.592438,39.501007,-3.073298,39.620383,500.0,0.100678,0.822201,7.92,False,100.78602623233456,47.466840744018555,33.5166525943,-115.700143213,272.1450146356158,68.75953430638423,249642,1.4759306061184725,343.0,41.900001525878906,868.0,983.0,98300.0,123.0,3.5,30.85498536438422,48.320964193946566,1005.9711186612424,10.01877930317341
LT_101-103_A2,True,115.0,121.0,2,-39.40033,3.895499,39.592438,39.501007,-3.073298,39.620383,500.0,0.100678,0.822201,7.92,False,100.78602623233456,47.466840744018555,33.5166525943,-115.700143213,272.1450146356158,68.75953430638423,249642,1.4759306061184725,343.0,41.900001525878906,868.0,983.0,98300.0,123.0,3.5,30.85498536438422,48.320964193946566,1005.9711186612424,10.01877930317341
LT_101-103_A2,True,115.0,124.0,26,90.779442,38.074139,98.440575,-90.050781,-32.661228,95.790913,500.0,0.728661,5.41291,19.69,False,250.58912447564092,49.83874320983887,33.524574389449995,-114.9929983545,86.0634407392426,62.52120431249092,263770,1.2987773397332119,181.0,43.099998474121094,843.0,985.0,98500.0,125.0,3.200000047683716,38.936559260757406,50.573904283330194,1002.0924633922735,25.006587079534466
LT_101-103_A2,True,116.0,117.0,27,-3.811323,18.003992,18.402988,3.824827,-17.886959,18.291326,500.0,0.013504,0.117033,3.68,False,46.53403521837157,47.10433006286621,33.6181318947,-115.48093336950001,252.22842579087137,31.107139968025567,253477,1.9140400448987045,626.0,40.29999923706055,872.0,951.0,95100.0,123.0,3.5,50.77157420912863,45.83679792511248,1109.7604975947208,4.193160174580802
...